Version 4
SHEET 1 2156 856
WIRE 784 400 640 400
WIRE 416 432 192 432
WIRE 768 464 640 464
WIRE 192 624 192 432
WIRE 192 752 192 704
FLAG 192 752 0
FLAG 784 400 Div10_OUT
IOPIN 784 400 Out
FLAG 768 464 Div10_OUT_n
IOPIN 768 464 Out
SYMBOL voltage 192 608 R0
WINDOW 123 0 0 Left 0
WINDOW 39 0 0 Left 0
SYMATTR InstName V1
SYMATTR Value PULSE(0 1 0 1n 1n 0.5u 1u)
SYMBOL counter 496 400 R0
WINDOW 3 -64 -52 Left 2
SYMATTR Value cycles=10
SYMATTR InstName A9
TEXT -224 -232 Left 2 !.tran 0 20u 0
TEXT 328 552 Left 2 ;right click on counter\nSet "Value" field to "cycles=n" where n is the divisor.
