Version 4
SHEET 1 1824 776
WIRE -576 -80 -624 -80
WIRE -32 -32 -80 -32
WIRE -416 -16 -592 -16
WIRE 240 16 64 16
WIRE -1040 64 -1152 64
WIRE -848 64 -1040 64
WIRE -1040 80 -1040 64
WIRE -592 80 -592 -16
WIRE -528 80 -592 80
WIRE -848 96 -928 96
WIRE -416 96 -416 -16
WIRE -416 96 -464 96
WIRE -304 96 -416 96
WIRE -928 112 -928 96
WIRE -624 112 -624 -80
WIRE -624 112 -672 112
WIRE -528 112 -624 112
WIRE 64 112 64 16
WIRE 128 112 64 112
WIRE -304 128 -384 128
WIRE 240 128 240 16
WIRE 240 128 192 128
WIRE 352 128 240 128
WIRE -80 144 -80 -32
WIRE -80 144 -128 144
WIRE 128 144 -80 144
WIRE -848 160 -896 160
WIRE -384 160 -384 128
WIRE -1040 176 -1040 160
WIRE -304 192 -352 192
WIRE -848 208 -848 192
WIRE -304 240 -304 224
WIRE -1040 288 -1152 288
WIRE -896 288 -896 160
WIRE -896 288 -1040 288
WIRE -528 288 -896 288
WIRE -352 288 -352 192
WIRE -352 288 -464 288
WIRE -1040 320 -1040 288
WIRE -1040 416 -1040 400
FLAG 352 128 Vout
IOPIN 352 128 Out
FLAG 80 320 0
FLAG 80 240 Vdd
FLAG 224 320 0
FLAG 224 240 Vee
FLAG -496 64 Vdd
FLAG -496 128 Vee
FLAG -1040 176 0
FLAG -1040 416 0
FLAG -1152 64 Vin1
IOPIN -1152 64 In
FLAG -1152 288 Vin2
IOPIN -1152 288 In
FLAG -928 112 0
FLAG -528 304 0
FLAG 160 96 Vdd
FLAG 160 160 Vee
FLAG -576 -80 Vsw1
IOPIN -576 -80 Out
FLAG -32 -32 Vsw2
IOPIN -32 -32 Out
FLAG -848 208 0
FLAG -384 160 0
FLAG -304 240 0
SYMBOL voltage 80 224 R0
WINDOW 123 0 0 Left 0
WINDOW 39 0 0 Left 0
SYMATTR InstName V1
SYMATTR Value 10
SYMBOL voltage 224 336 R180
WINDOW 0 24 96 Left 2
WINDOW 3 24 16 Left 2
WINDOW 123 0 0 Left 0
WINDOW 39 0 0 Left 0
SYMATTR InstName V2
SYMATTR Value 10
SYMBOL voltage -1040 64 M0
WINDOW 123 0 0 Left 0
WINDOW 39 0 0 Left 0
SYMATTR InstName V3
SYMATTR Value SINE(0 1 100k 0u)
SYMBOL voltage -1040 304 R0
WINDOW 123 0 0 Left 0
WINDOW 39 0 0 Left 0
SYMATTR InstName V4
SYMATTR Value PULSE(0 1 0u 1n 1n 20.3u 40.6u)
SYMBOL Digital\\inv -528 224 R0
SYMATTR InstName A1
SYMBOL Opamps\\AD549 -496 32 R0
SYMATTR InstName U3
SYMBOL Opamps\\AD549 160 64 R0
SYMATTR InstName U1
SYMBOL SpecialFunctions\\sample -768 96 R0
SYMATTR InstName A2
SYMBOL SpecialFunctions\\sample -224 128 R0
SYMATTR InstName A3
TEXT -232 440 Left 2 !.tran 0 1m 0.7m
